test/data/bkup/uiuc150.m
%% MATPOWER Case Format : Version 2
mpc.version = '2';

%%-----  Power Flow Data  -----%%
%% system MVA base
mpc.baseMVA = 100;

%% bus data
%    bus_i    type    Pd    Qd    Gs    Bs    area    Vm    Va    baseKV    zone    Vmax    Vmin
mpc.bus = [
	1	2	0	0	0	0	1	1.100000	-0.000000	13.8	1	1.3	0.7
	10	1	72.72	20.73	0	0	1	1.100000	-0.000000	230	1	1.3	0.7
	100	1	0	0	0	0	1	1.100000	-0.000000	500	1	1.3	0.7
	101	1	0	0	0	0	1	1.100000	-0.000000	500	1	1.3	0.7
	102	1	0	0	0	0	1	1.100000	-0.000000	500	1	1.3	0.7
	103	1	0	0	0	0	1	1.100000	-0.000000	500	1	1.3	0.7
	104	1	0	0	0	0	1	1.100000	-0.000000	500	1	1.3	0.7
	105	1	0	0	0	0	1	1.100000	-0.000000	500	1	1.3	0.7
	106	1	0	0	0	0	1	1.100000	-0.000000	500	1	1.3	0.7
	107	1	0	0	0	0	1	1.100000	-0.000000	500	1	1.3	0.7
	108	1	0	0	0	0	1	1.100000	-0.000000	500	1	1.3	0.7
	109	1	0	0	0	0	1	1.100000	-0.000000	500	1	1.3	0.7
	11	1	189.93	54.13	0	0	1	1.100000	-0.000000	230	1	1.3	0.7
	110	2	0	0	0	0	1	1.100000	-0.000000	13.8	1	1.3	0.7
	111	2	0	0	0	0	1	1.100000	-0.000000	13.8	1	1.3	0.7
	112	2	0	0	0	0	1	1.100000	-0.000000	13.8	1	1.3	0.7
	113	2	0	0	0	0	1	1.100000	-0.000000	13.8	1	1.3	0.7
	114	2	0	0	0	0	1	1.100000	-0.000000	13.8	1	1.3	0.7
	115	2	0	0	0	0	1	1.100000	-0.000000	13.8	1	1.3	0.7
	116	2	0	0	0	0	1	1.100000	-0.000000	13.8	1	1.3	0.7
	117	2	0	0	0	0	1	1.100000	-0.000000	13.8	1	1.3	0.7
	118	2	0	0	0	0	1	1.100000	-0.000000	13.8	1	1.3	0.7
	119	2	0	0	0	0	1	1.100000	-0.000000	13.8	1	1.3	0.7
	12	1	125.3	35.71	0	0	1	1.100000	-0.000000	230	1	1.3	0.7
	120	2	0	0	0	0	1	1.100000	-0.000000	13.8	1	1.3	0.7
	121	2	0	0	0	0	1	1.100000	-0.000000	13.8	1	1.3	0.7
	122	2	0	0	0	0	1	1.100000	-0.000000	13.8	1	1.3	0.7
	123	2	0	0	0	0	1	1.100000	-0.000000	13.8	1	1.3	0.7
	124	2	0	0	0	0	1	1.100000	-0.000000	13.8	1	1.3	0.7
	125	2	0	0	0	0	1	1.100000	-0.000000	13.8	1	1.3	0.7
	126	2	0	0	0	0	1	1.100000	-0.000000	13.8	1	1.3	0.7
	127	2	0	0	0	0	1	1.100000	-0.000000	13.8	1	1.3	0.7
	128	2	0	0	0	0	1	1.100000	-0.000000	13.8	1	1.3	0.7
	129	2	0	0	0	0	1	1.100000	-0.000000	13.8	1	1.3	0.7
	13	1	177.27	50.52	0	0	1	1.100000	-0.000000	230	1	1.3	0.7
	130	2	0	0	0	0	1	1.100000	-0.000000	13.8	1	1.3	0.7
	131	2	0	0	0	0	1	1.100000	-0.000000	13.8	1	1.3	0.7
	132	3	0	0	0	0	1	1.100000	-0.000000	13.8	1	1.3	0.7
	133	2	0	0	0	0	1	1.100000	-0.000000	13.8	1	1.3	0.7
	134	2	0	0	0	0	1	1.100000	-0.000000	13.8	1	1.3	0.7
	135	2	0	0	0	0	1	1.100000	-0.000000	13.8	1	1.3	0.7
	136	1	0	0	0	0	1	1.100000	-0.000000	230	1	1.3	0.7
	137	1	0	0	0	0	1	1.100000	-0.000000	500	1	1.3	0.7
	138	1	0	0	0	0	1	1.100000	-0.000000	230	1	1.3	0.7
	139	1	0	0	0	0	1	1.100000	-0.000000	500	1	1.3	0.7
	14	1	199.17	56.76	0	0	1	1.100000	-0.000000	230	1	1.3	0.7
	140	1	0	0	0	0	1	1.100000	-0.000000	230	1	1.3	0.7
	141	1	0	0	0	0	1	1.100000	-0.000000	230	1	1.3	0.7
	142	1	0	0	0	0	1	1.100000	-0.000000	500	1	1.3	0.7
	143	1	0	0	0	0	1	1.100000	-0.000000	230	1	1.3	0.7
	144	1	0	0	0	0	1	1.100000	-0.000000	500	1	1.3	0.7
	145	1	0	0	0	0	1	1.100000	-0.000000	230	1	1.3	0.7
	146	1	0	0	0	0	1	1.100000	-0.000000	500	1	1.3	0.7
	147	1	0	0	0	0	1	1.100000	-0.000000	230	1	1.3	0.7
	148	1	0	0	0	0	1	1.100000	-0.000000	500	1	1.3	0.7
	149	1	0	0	0	0	1	1.100000	-0.000000	230	1	1.3	0.7
	15	1	178.44	50.85	0	0	1	1.100000	-0.000000	230	1	1.3	0.7
	150	1	0	0	0	0	1	1.100000	-0.000000	500	1	1.3	0.7
	16	1	119.77	34.13	0	0	1	1.100000	-0.000000	230	1	1.3	0.7
	17	1	162.89	46.42	0	0	1	1.100000	-0.000000	230	1	1.3	0.7
	18	1	129.66	36.95	0	0	1	1.100000	-0.000000	230	1	1.3	0.7
	19	1	161.67	46.08	0	0	1	1.100000	-0.000000	230	1	1.3	0.7
	2	1	184.31	52.53	0	0	1	1.100000	-0.000000	230	1	1.3	0.7
	20	1	99.26	28.29	0	0	1	1.100000	-0.000000	230	1	1.3	0.7
	21	1	180.09	51.33	0	0	1	1.100000	-0.000000	230	1	1.3	0.7
	22	1	194.99	55.57	0	155.01	1	1.100000	-0.000000	230	1	1.3	0.7
	23	1	187.18	53.35	0	0	1	1.100000	-0.000000	230	1	1.3	0.7
	24	1	60.74	17.31	0	0	1	1.100000	-0.000000	230	1	1.3	0.7
	25	1	39.54	11.27	0	0	1	1.100000	-0.000000	230	1	1.3	0.7
	26	1	161.77	46.11	0	151.3	1	1.100000	-0.000000	230	1	1.3	0.7
	27	1	199.09	56.74	0	0	1	1.100000	-0.000000	230	1	1.3	0.7
	28	1	131.12	37.37	0	0	1	1.100000	-0.000000	230	1	1.3	0.7
	29	1	141.48	40.32	0	0	1	1.100000	-0.000000	230	1	1.3	0.7
	3	1	165.52	47.17	0	0	1	1.100000	-0.000000	230	1	1.3	0.7
	30	1	149.51	42.61	0	0	1	1.100000	-0.000000	230	1	1.3	0.7
	31	1	153.82	43.84	0	0	1	1.100000	-0.000000	230	1	1.3	0.7
	32	1	167.52	47.74	0	0	1	1.100000	-0.000000	230	1	1.3	0.7
	33	1	199.09	56.74	0	0	1	1.100000	-0.000000	230	1	1.3	0.7
	34	1	158.01	45.03	0	0	1	1.100000	-0.000000	230	1	1.3	0.7
	35	1	166.05	47.32	0	0	1	1.100000	-0.000000	230	1	1.3	0.7
	36	1	10	2.85	0	0	1	1.100000	-0.000000	230	1	1.3	0.7
	37	1	87.53	24.94	0	0	1	1.100000	-0.000000	230	1	1.3	0.7
	38	1	42.84	12.21	0	0	1	1.100000	-0.000000	230	1	1.3	0.7
	39	1	68.29	19.46	0	0	1	1.100000	-0.000000	230	1	1.3	0.7
	4	1	156.81	44.69	0	0	1	1.100000	-0.000000	230	1	1.3	0.7
	40	1	186.84	53.25	0	0	1	1.100000	-0.000000	230	1	1.3	0.7
	41	1	161.23	45.95	0	0	1	1.100000	-0.000000	230	1	1.3	0.7
	42	1	155.94	44.44	0	0	1	1.100000	-0.000000	230	1	1.3	0.7
	43	1	188.78	53.8	0	0	1	1.100000	-0.000000	230	1	1.3	0.7
	44	1	114.86	32.74	0	0	1	1.100000	-0.000000	230	1	1.3	0.7
	45	1	197.41	56.26	0	0	1	1.100000	-0.000000	230	1	1.3	0.7
	46	1	93.46	26.64	0	0	1	1.100000	-0.000000	230	1	1.3	0.7
	47	1	181.6	51.76	0	0	1	1.100000	-0.000000	230	1	1.3	0.7
	48	1	31.4	8.95	0	0	1	1.100000	-0.000000	230	1	1.3	0.7
	49	1	199.46	56.85	0	0	1	1.100000	-0.000000	230	1	1.3	0.7
	5	1	168.45	48.01	0	0	1	1.100000	-0.000000	230	1	1.3	0.7
	50	1	154.51	44.03	0	0	1	1.100000	-0.000000	230	1	1.3	0.7
	51	1	179.2	51.07	0	0	1	1.100000	-0.000000	230	1	1.3	0.7
	52	1	126.82	36.14	0	0	1	1.100000	-0.000000	230	1	1.3	0.7
	53	1	184.31	52.53	0	0	1	1.100000	-0.000000	230	1	1.3	0.7
	54	1	185.6	52.9	0	0	1	1.100000	-0.000000	230	1	1.3	0.7
	55	1	112.63	32.1	0	0	1	1.100000	-0.000000	230	1	1.3	0.7
	56	1	177	50.44	0	0	1	1.100000	-0.000000	230	1	1.3	0.7
	57	1	129.66	36.95	0	0	1	1.100000	-0.000000	230	1	1.3	0.7
	58	1	66.01	18.81	0	0	1	1.100000	-0.000000	230	1	1.3	0.7
	59	1	121.51	34.63	0	0	1	1.100000	-0.000000	230	1	1.3	0.7
	6	1	156.89	44.71	0	0	1	1.100000	-0.000000	230	1	1.3	0.7
	60	1	124.07	35.36	0	0	1	1.100000	-0.000000	230	1	1.3	0.7
	61	1	131.73	37.54	0	0	1	1.100000	-0.000000	230	1	1.3	0.7
	62	1	166.18	47.36	0	0	1	1.100000	-0.000000	230	1	1.3	0.7
	63	1	185.44	52.85	0	0	1	1.100000	-0.000000	230	1	1.3	0.7
	64	1	193.86	55.25	0	0	1	1.100000	-0.000000	230	1	1.3	0.7
	65	1	118.74	33.84	0	0	1	1.100000	-0.000000	230	1	1.3	0.7
	66	1	88.78	25.3	0	0	1	1.100000	-0.000000	230	1	1.3	0.7
	67	1	154.15	43.93	0	0	1	1.100000	-0.000000	230	1	1.3	0.7
	68	1	66.69	19.01	0	0	1	1.100000	-0.000000	230	1	1.3	0.7
	69	1	64.75	18.45	0	0	1	1.100000	-0.000000	230	1	1.3	0.7
	7	1	134.58	38.36	0	0	1	1.100000	-0.000000	230	1	1.3	0.7
	70	1	33.9	9.66	0	0	1	1.100000	-0.000000	230	1	1.3	0.7
	71	1	197.85	56.39	0	0	1	1.100000	-0.000000	230	1	1.3	0.7
	72	1	166.18	47.36	0	0	1	1.100000	-0.000000	230	1	1.3	0.7
	73	1	87.93	25.06	0	0	1	1.100000	-0.000000	230	1	1.3	0.7
	74	1	173.84	49.55	0	0	1	1.100000	-0.000000	230	1	1.3	0.7
	75	1	146.93	41.87	0	0	1	1.100000	-0.000000	230	1	1.3	0.7
	76	1	168.55	48.04	0	0	1	1.100000	-0.000000	230	1	1.3	0.7
	77	1	147.63	42.08	0	0	1	1.100000	-0.000000	230	1	1.3	0.7
	78	1	177.72	50.65	0	0	1	1.100000	-0.000000	230	1	1.3	0.7
	79	1	191.23	54.5	0	152.42	1	1.100000	-0.000000	230	1	1.3	0.7
	8	1	195.4	55.69	0	0	1	1.100000	-0.000000	230	1	1.3	0.7
	80	1	167.84	47.83	0	0	1	1.100000	-0.000000	230	1	1.3	0.7
	81	1	163.74	46.67	0	0	1	1.100000	-0.000000	230	1	1.3	0.7
	82	1	152.56	43.48	0	0	1	1.100000	-0.000000	230	1	1.3	0.7
	83	1	83.51	23.8	0	0	1	1.100000	-0.000000	230	1	1.3	0.7
	84	1	67.18	19.15	0	0	1	1.100000	-0.000000	230	1	1.3	0.7
	85	1	64.87	18.49	0	0	1	1.100000	-0.000000	230	1	1.3	0.7
	86	1	186.9	53.27	0	0	1	1.100000	-0.000000	230	1	1.3	0.7
	87	1	96.15	27.4	0	0	1	1.100000	-0.000000	230	1	1.3	0.7
	88	1	65.71	18.73	0	0	1	1.100000	-0.000000	230	1	1.3	0.7
	89	1	179.49	51.15	0	0	1	1.100000	-0.000000	230	1	1.3	0.7
	9	1	176.31	50.25	0	0	1	1.100000	-0.000000	230	1	1.3	0.7
	90	1	198.93	56.7	0	0	1	1.100000	-0.000000	230	1	1.3	0.7
	91	1	65.65	18.71	0	0	1	1.100000	-0.000000	230	1	1.3	0.7
	92	1	0	0	0	0	1	1.100000	-0.000000	500	1	1.3	0.7
	93	1	0	0	0	0	1	1.100000	-0.000000	500	1	1.3	0.7
	94	1	0	0	0	0	1	1.100000	-0.000000	500	1	1.3	0.7
	95	1	0	0	0	0	1	1.100000	-0.000000	500	1	1.3	0.7
	96	1	0	0	0	0	1	1.100000	-0.000000	500	1	1.3	0.7
	97	1	0	0	0	0	1	1.100000	-0.000000	500	1	1.3	0.7
	98	1	0	0	0	0	1	1.100000	-0.000000	500	1	1.3	0.7
	99	1	0	0	0	0	1	1.100000	-0.000000	500	1	1.3	0.7
];

%% generator data
%    bus    Pg    Qg    Qmax    Qmin    Vg    mBase    status    Pmax    Pmin    Pc1    Pc2    Qc1min    Qc1max    Qc2min    Qc2max    ramp_agc    ramp_10    ramp_30    ramp_q    apf
mpc.gen = [
	1	1098.72	261.28	9527.7	-1862.2	1.1	100.0	1	20426.0	0.0	0.0	0.0	0.0	0.0	0.0	0.0	0.0	0	0.0	-1000.0	0.0
	110	366.9	170.41	3822.9999999999995	-439.59999999999997	1.1	100.0	1	6831.0	0.0	0.0	0.0	0.0	0.0	0.0	0.0	0.0	0	0.0	-1000.0	0.0
	111	243.96	113.31	1746.3999999999999	-222.10000000000002	1.1	100.0	1	4542.0	0.0	0.0	0.0	0.0	0.0	0.0	0.0	0.0	0	0.0	-1000.0	0.0
	112	692.45	321.61	6013.5	-1175.4	1.1	100.0	1	12891.999999999998	0.0	0.0	0.0	0.0	0.0	0.0	0.0	0.0	0	0.0	-1000.0	0.0
	113	340.21	208.69	3544.8	-407.7000000000001	1.1	100.0	1	6334.0	0.0	0.0	0.0	0.0	0.0	0.0	0.0	0.0	0	0.0	-1000.0	0.0
	114	340.21	208.69	3544.8	-407.7000000000001	1.1	100.0	1	6334.0	0.0	0.0	0.0	0.0	0.0	0.0	0.0	0.0	0	0.0	-1000.0	0.0
	115	147.81	90.67	1058.1	-134.60000000000002	1.1	100.0	1	2752.0	0.0	0.0	0.0	0.0	0.0	0.0	0.0	0.0	0	0.0	-1000.0	0.0
	116	364.81	86.87	3801.1000000000004	-437.1	1.1	100.0	1	6792.0	0.0	0.0	0.0	0.0	0.0	0.0	0.0	0.0	0	0.0	-1000.0	0.0
	117	364.81	86.87	3801.1000000000004	-437.1	1.1	100.0	1	6792.0	0.0	0.0	0.0	0.0	0.0	0.0	0.0	0.0	0	0.0	-1000.0	0.0
	118	364.81	86.87	3801.1000000000004	-437.1	1.1	100.0	1	6792.0	0.0	0.0	0.0	0.0	0.0	0.0	0.0	0.0	0	0.0	-1000.0	0.0
	119	1097.11	261.24	9527.7	-1862.2	1.1	100.0	1	20426.0	0.0	0.0	0.0	0.0	0.0	0.0	0.0	0.0	0	0.0	-1000.0	0.0
	120	238.34999999999997	85.03	1706.2	-217.0	1.1	100.0	1	4437.5	0.0	0.0	0.0	0.0	0.0	0.0	0.0	0.0	0	0.0	-1000.0	0.0
	121	238.34999999999997	85.03	1706.2	-217.0	1.1	100.0	1	4437.5	0.0	0.0	0.0	0.0	0.0	0.0	0.0	0.0	0	0.0	-1000.0	0.0
	122	711.68	253.89	6180.4	-1208.0	1.1	100.0	1	13250.0	0.0	0.0	0.0	0.0	0.0	0.0	0.0	0.0	0	0.0	-1000.0	0.0
	123	711.68	253.89	6180.4	-1208.0	1.1	100.0	1	13250.0	0.0	0.0	0.0	0.0	0.0	0.0	0.0	0.0	0	0.0	-1000.0	0.0
	124	363.92	175.61	3791.9000000000005	-436.1000000000001	1.1	100.0	1	6775.5	0.0	0.0	0.0	0.0	0.0	0.0	0.0	0.0	0	0.0	-1000.0	0.0
	125	363.92	175.61	3791.9000000000005	-436.1000000000001	1.1	100.0	1	6775.5	0.0	0.0	0.0	0.0	0.0	0.0	0.0	0.0	0	0.0	-1000.0	0.0
	126	363.92	175.61	3791.9000000000005	-436.1000000000001	1.1	100.0	1	6775.5	0.0	0.0	0.0	0.0	0.0	0.0	0.0	0.0	0	0.0	-1000.0	0.0
	127	363.92	175.61	3791.9000000000005	-436.1000000000001	1.1	100.0	1	6775.5	0.0	0.0	0.0	0.0	0.0	0.0	0.0	0.0	0	0.0	-1000.0	0.0
	128	545.17	263.07	4734.5	-925.4000000000001	1.1	100.0	1	10150.0	0.0	0.0	0.0	0.0	0.0	0.0	0.0	0.0	0	0.0	-1000.0	0.0
	129	184.82	91.05	1323.0	-168.29999999999998	1.1	100.0	1	3440.9999999999995	0.0	0.0	0.0	0.0	0.0	0.0	0.0	0.0	0	0.0	-1000.0	0.0
	130	428.08000000000004	99.36	3064.4	-389.79999999999995	1.1	100.0	1	7970.0	0.0	0.0	0.0	0.0	0.0	0.0	0.0	0.0	0	0.0	-1000.0	0.0
	131	428.08000000000004	99.36	3064.4	-389.79999999999995	1.1	100.0	1	7970.0	0.0	0.0	0.0	0.0	0.0	0.0	0.0	0.0	0	0.0	-1000.0	0.0
	132	428.08000000000004	99.36	3064.4	-389.79999999999995	1.1	100.0	1	7970.0	0.0	0.0	0.0	0.0	0.0	0.0	0.0	0.0	0	0.0	-1000.0	0.0
	133	996.5899999999999	231.32000000000002	6834.400000000001	-1508.8	1.1	100.0	1	18554.5	0.0	0.0	0.0	0.0	0.0	0.0	0.0	0.0	0	0.0	-1000.0	0.0
	134	996.5899999999999	231.32000000000002	6834.400000000001	-1508.8	1.1	100.0	1	18554.5	0.0	0.0	0.0	0.0	0.0	0.0	0.0	0.0	0	0.0	-1000.0	0.0
	135	24.55	17.57	175.7	-22.400000000000002	1.1	100.0	1	457.0	0.0	0.0	0.0	0.0	0.0	0.0	0.0	0.0	0	0.0	-1000.0	0.0
];

%% branch data
%    fbus    tbus    r    x    b    rateA    rateB    rateC    ratio    angle    status    angmin    angmax
mpc.branch = [
	2	21	0.00318	0.02264	0.04154	402.4	0.0	0.0	1.0	0.0	1	-29.999999999999996	29.999999999999996
	2	14	0.00546	0.0389	0.07137	402.4	0.0	0.0	1.0	0.0	1	-29.999999999999996	29.999999999999996
	4	30	0.00111	0.0079	0.01449	402.4	0.0	0.0	1.0	0.0	1	-29.999999999999996	29.999999999999996
	4	19	0.00147	0.01048	0.01922	402.4	0.0	0.0	1.0	0.0	1	-29.999999999999996	29.999999999999996
	4	18	0.00118	0.00838	0.01538	402.4	0.0	0.0	1.0	0.0	1	-29.999999999999996	29.999999999999996
	5	16	0.00254	0.01812	0.03325	402.4	0.0	0.0	1.0	0.0	1	-29.999999999999996	29.999999999999996
	5	30	0.00163	0.01161	0.0213	402.4	0.0	0.0	1.0	0.0	1	-29.999999999999996	29.999999999999996
	6	14	0.00521	0.03709	0.06805	402.4	0.0	0.0	1.0	0.0	1	-29.999999999999996	29.999999999999996
	6	13	0.00282	0.02007	0.03682	402.4	0.0	0.0	1.0	0.0	1	-29.999999999999996	29.999999999999996
	6	28	0.00255	0.01817	0.03334	402.4	0.0	0.0	1.0	0.0	1	-29.999999999999996	29.999999999999996
	7	38	0.00589	0.04194	0.07695	402.4	0.0	0.0	1.0	0.0	1	-29.999999999999996	29.999999999999996
	7	8	0.0066	0.047	0.08623	402.4	0.0	0.0	1.0	0.0	1	-29.999999999999996	29.999999999999996
	8	23	0.00224	0.01597	0.02929	402.4	0.0	0.0	1.0	0.0	1	-29.999999999999996	29.999999999999996
	9	39	0.00549	0.03908	0.0717	402.4	0.0	0.0	1.0	0.0	1	-29.999999999999996	29.999999999999996
	9	23	0.00568	0.04045	0.07421	402.4	0.0	0.0	1.0	0.0	1	-29.999999999999996	29.999999999999996
	9	26	0.00468	0.03335	0.06118	402.4	0.0	0.0	1.0	0.0	1	-29.999999999999996	29.999999999999996
	10	141	0.00437	0.03115	0.05716	402.4	0.0	0.0	1.0	0.0	1	-29.999999999999996	29.999999999999996
	10	25	0.00591	0.04211	0.07726	402.4	0.0	0.0	1.0	0.0	1	-29.999999999999996	29.999999999999996
	11	14	0.00252	0.01798	0.03299	402.4	0.0	0.0	1.0	0.0	1	-29.999999999999996	29.999999999999996
	12	13	0.00516	0.03674	0.06741	402.4	0.0	0.0	1.0	0.0	1	-29.999999999999996	29.999999999999996
	12	143	0.00651	0.04634	0.08502	402.4	0.0	0.0	1.0	0.0	1	-29.999999999999996	29.999999999999996
	13	16	0.0027	0.01925	0.03532	402.4	0.0	0.0	1.0	0.0	1	-29.999999999999996	29.999999999999996
	15	17	0.0025	0.01781	0.03267	402.4	0.0	0.0	1.0	0.0	1	-29.999999999999996	29.999999999999996
	16	26	0.00314	0.02239	0.04107	402.4	0.0	0.0	1.0	0.0	1	-29.999999999999996	29.999999999999996
	17	21	0.00185	0.01316	0.02415	402.4	0.0	0.0	1.0	0.0	1	-29.999999999999996	29.999999999999996
	18	22	0.00071	0.00506	0.00928	402.4	0.0	0.0	1.0	0.0	1	-29.999999999999996	29.999999999999996
	19	23	0.00202	0.01436	0.02635	402.4	0.0	0.0	1.0	0.0	1	-29.999999999999996	29.999999999999996
	19	3	0.00545	0.0388	0.07119	402.4	0.0	0.0	1.0	0.0	1	-29.999999999999996	29.999999999999996
	20	143	0.00686	0.04887	0.08966	402.4	0.0	0.0	1.0	0.0	1	-29.999999999999996	29.999999999999996
	21	29	0.00112	0.00799	0.01466	402.4	0.0	0.0	1.0	0.0	1	-29.999999999999996	29.999999999999996
	22	30	0.00119	0.0085	0.0156	402.4	0.0	0.0	1.0	0.0	1	-29.999999999999996	29.999999999999996
	22	29	0.00059	0.00419	0.00769	402.4	0.0	0.0	1.0	0.0	1	-29.999999999999996	29.999999999999996
	22	30	0.00119	0.0085	0.0156	402.4	0.0	0.0	1.0	0.0	1	-29.999999999999996	29.999999999999996
	24	143	0.00068	0.00482	0.00884	402.4	0.0	0.0	1.0	0.0	1	-29.999999999999996	29.999999999999996
	28	29	0.00109	0.00775	0.01422	402.4	0.0	0.0	1.0	0.0	1	-29.999999999999996	29.999999999999996
	31	41	0.00388	0.02764	0.05072	402.4	0.0	0.0	1.0	0.0	1	-29.999999999999996	29.999999999999996
	31	38	0.00561	0.03996	0.07331	402.4	0.0	0.0	1.0	0.0	1	-29.999999999999996	29.999999999999996
	31	40	0.00358	0.02551	0.04679	402.4	0.0	0.0	1.0	0.0	1	-29.999999999999996	29.999999999999996
	32	36	0.00856	0.061	0.11191	402.4	0.0	0.0	1.0	0.0	1	-29.999999999999996	29.999999999999996
	32	40	0.00178	0.01265	0.0232	402.4	0.0	0.0	1.0	0.0	1	-29.999999999999996	29.999999999999996
	33	37	0.00539	0.0384	0.07046	402.4	0.0	0.0	1.0	0.0	1	-29.999999999999996	29.999999999999996
	34	36	0.00527	0.03754	0.06887	402.4	0.0	0.0	1.0	0.0	1	-29.999999999999996	29.999999999999996
	35	37	0.0046	0.03276	0.0601	402.4	0.0	0.0	1.0	0.0	1	-29.999999999999996	29.999999999999996
	35	145	0.00099	0.00706	0.01295	402.4	0.0	0.0	1.0	0.0	1	-29.999999999999996	29.999999999999996
	35	145	0.00099	0.00706	0.01295	402.4	0.0	0.0	1.0	0.0	1	-29.999999999999996	29.999999999999996
	35	34	0.00334	0.0238	0.04367	402.4	0.0	0.0	1.0	0.0	1	-29.999999999999996	29.999999999999996
	37	38	0.00504	0.03592	0.06589	402.4	0.0	0.0	1.0	0.0	1	-29.999999999999996	29.999999999999996
	40	41	0.00173	0.01229	0.02255	402.4	0.0	0.0	1.0	0.0	1	-29.999999999999996	29.999999999999996
	42	43	0.00133	0.0095	0.01743	402.4	0.0	0.0	1.0	0.0	1	-29.999999999999996	29.999999999999996
	44	42	0.00585	0.04163	0.07638	402.4	0.0	0.0	1.0	0.0	1	-29.999999999999996	29.999999999999996
	44	149	0.00359	0.02554	0.04685	402.4	0.0	0.0	1.0	0.0	1	-29.999999999999996	29.999999999999996
	45	48	0.0036	0.02565	0.04706	402.4	0.0	0.0	1.0	0.0	1	-29.999999999999996	29.999999999999996
	45	42	0.00331	0.02359	0.04328	402.4	0.0	0.0	1.0	0.0	1	-29.999999999999996	29.999999999999996
	46	149	0.00221	0.01574	0.02887	402.4	0.0	0.0	1.0	0.0	1	-29.999999999999996	29.999999999999996
	46	47	0.00354	0.02518	0.0462	402.4	0.0	0.0	1.0	0.0	1	-29.999999999999996	29.999999999999996
	47	48	0.00858	0.0611	0.1121	402.4	0.0	0.0	1.0	0.0	1	-29.999999999999996	29.999999999999996
	47	43	0.00291	0.02073	0.03803	402.4	0.0	0.0	1.0	0.0	1	-29.999999999999996	29.999999999999996
	49	52	0.00307	0.0219	0.04018	402.4	0.0	0.0	1.0	0.0	1	-29.999999999999996	29.999999999999996
	49	63	0.00238	0.01695	0.0311	402.4	0.0	0.0	1.0	0.0	1	-29.999999999999996	29.999999999999996
	50	56	0.00261	0.01861	0.03415	402.4	0.0	0.0	1.0	0.0	1	-29.999999999999996	29.999999999999996
	50	55	0.00491	0.03494	0.0641	402.4	0.0	0.0	1.0	0.0	1	-29.999999999999996	29.999999999999996
	50	64	0.00284	0.02024	0.03713	402.4	0.0	0.0	1.0	0.0	1	-29.999999999999996	29.999999999999996
	51	149	0.00381	0.02716	0.04983	402.4	0.0	0.0	1.0	0.0	1	-29.999999999999996	29.999999999999996
	51	58	0.00553	0.03938	0.07224	402.4	0.0	0.0	1.0	0.0	1	-29.999999999999996	29.999999999999996
	51	54	0.00322	0.02295	0.04211	402.4	0.0	0.0	1.0	0.0	1	-29.999999999999996	29.999999999999996
	52	60	0.00386	0.02746	0.05038	402.4	0.0	0.0	1.0	0.0	1	-29.999999999999996	29.999999999999996
	52	56	0.00241	0.01714	0.03145	402.4	0.0	0.0	1.0	0.0	1	-29.999999999999996	29.999999999999996
	53	138	0.00193	0.01376	0.02525	402.4	0.0	0.0	1.0	0.0	1	-29.999999999999996	29.999999999999996
	53	138	0.00193	0.01376	0.02525	402.4	0.0	0.0	1.0	0.0	1	-29.999999999999996	29.999999999999996
	53	62	0.00205	0.01459	0.02676	402.4	0.0	0.0	1.0	0.0	1	-29.999999999999996	29.999999999999996
	54	60	0.00425	0.03027	0.05554	402.4	0.0	0.0	1.0	0.0	1	-29.999999999999996	29.999999999999996
	55	138	0.00778	0.05539	0.10163	402.4	0.0	0.0	1.0	0.0	1	-29.999999999999996	29.999999999999996
	56	63	0.00206	0.01466	0.02689	402.4	0.0	0.0	1.0	0.0	1	-29.999999999999996	29.999999999999996
	56	58	0.00624	0.04441	0.08147	402.4	0.0	0.0	1.0	0.0	1	-29.999999999999996	29.999999999999996
	57	90	0.00592	0.04216	0.07735	402.4	0.0	0.0	1.0	0.0	1	-29.999999999999996	29.999999999999996
	57	59	0.00549	0.0391	0.07173	402.4	0.0	0.0	1.0	0.0	1	-29.999999999999996	29.999999999999996
	59	138	0.0015	0.01071	0.01965	402.4	0.0	0.0	1.0	0.0	1	-29.999999999999996	29.999999999999996
	61	33	0.00607	0.04322	0.0793	402.4	0.0	0.0	1.0	0.0	1	-29.999999999999996	29.999999999999996
	61	62	0.00323	0.02303	0.04225	402.4	0.0	0.0	1.0	0.0	1	-29.999999999999996	29.999999999999996
	62	64	0.00141	0.01006	0.01846	402.4	0.0	0.0	1.0	0.0	1	-29.999999999999996	29.999999999999996
	63	64	0.00139	0.00992	0.0182	402.4	0.0	0.0	1.0	0.0	1	-29.999999999999996	29.999999999999996
	65	86	0.00471	0.03356	0.06158	402.4	0.0	0.0	1.0	0.0	1	-29.999999999999996	29.999999999999996
	65	83	0.00502	0.03578	0.06565	402.4	0.0	0.0	1.0	0.0	1	-29.999999999999996	29.999999999999996
	65	73	0.00466	0.03318	0.06087	402.4	0.0	0.0	1.0	0.0	1	-29.999999999999996	29.999999999999996
	66	71	0.00212	0.01509	0.02769	402.4	0.0	0.0	1.0	0.0	1	-29.999999999999996	29.999999999999996
	66	67	0.0039	0.02777	0.05095	402.4	0.0	0.0	1.0	0.0	1	-29.999999999999996	29.999999999999996
	67	136	0.00407	0.02896	0.05313	402.4	0.0	0.0	1.0	0.0	1	-29.999999999999996	29.999999999999996
	67	136	0.00407	0.02896	0.05313	402.4	0.0	0.0	1.0	0.0	1	-29.999999999999996	29.999999999999996
	67	75	0.00528	0.03757	0.06893	402.4	0.0	0.0	1.0	0.0	1	-29.999999999999996	29.999999999999996
	68	85	0.00559	0.03982	0.07306	402.4	0.0	0.0	1.0	0.0	1	-29.999999999999996	29.999999999999996
	68	73	0.00553	0.0394	0.07228	402.4	0.0	0.0	1.0	0.0	1	-29.999999999999996	29.999999999999996
	69	87	0.00541	0.03855	0.07074	402.4	0.0	0.0	1.0	0.0	1	-29.999999999999996	29.999999999999996
	69	70	0.00581	0.04139	0.07594	402.4	0.0	0.0	1.0	0.0	1	-29.999999999999996	29.999999999999996
	70	136	0.00168	0.01199	0.02199	402.4	0.0	0.0	1.0	0.0	1	-29.999999999999996	29.999999999999996
	70	72	0.0078	0.05557	0.10196	402.4	0.0	0.0	1.0	0.0	1	-29.999999999999996	29.999999999999996
	71	74	0.00108	0.00769	0.01411	402.4	0.0	0.0	1.0	0.0	1	-29.999999999999996	29.999999999999996
	71	74	0.00108	0.00769	0.01411	402.4	0.0	0.0	1.0	0.0	1	-29.999999999999996	29.999999999999996
	71	72	0.00248	0.01768	0.03243	402.4	0.0	0.0	1.0	0.0	1	-29.999999999999996	29.999999999999996
	71	82	0.00174	0.01238	0.02271	402.4	0.0	0.0	1.0	0.0	1	-29.999999999999996	29.999999999999996
	73	136	0.0055	0.03917	0.07187	402.4	0.0	0.0	1.0	0.0	1	-29.999999999999996	29.999999999999996
	74	78	0.00096	0.00682	0.01252	402.4	0.0	0.0	1.0	0.0	1	-29.999999999999996	29.999999999999996
	75	78	0.00143	0.01017	0.01866	402.4	0.0	0.0	1.0	0.0	1	-29.999999999999996	29.999999999999996
	76	79	0.00103	0.00733	0.01345	402.4	0.0	0.0	1.0	0.0	1	-29.999999999999996	29.999999999999996
	76	78	0.00121	0.00864	0.01586	402.4	0.0	0.0	1.0	0.0	1	-29.999999999999996	29.999999999999996
	76	77	0.00191	0.01361	0.02497	402.4	0.0	0.0	1.0	0.0	1	-29.999999999999996	29.999999999999996
	77	81	0.00204	0.01453	0.02666	402.4	0.0	0.0	1.0	0.0	1	-29.999999999999996	29.999999999999996
	79	80	0.00136	0.00966	0.01772	402.4	0.0	0.0	1.0	0.0	1	-29.999999999999996	29.999999999999996
	79	81	0.00115	0.0082	0.01504	402.4	0.0	0.0	1.0	0.0	1	-29.999999999999996	29.999999999999996
	80	82	0.00087	0.00622	0.01141	402.4	0.0	0.0	1.0	0.0	1	-29.999999999999996	29.999999999999996
	83	20	0.00642	0.04572	0.08389	402.4	0.0	0.0	1.0	0.0	1	-29.999999999999996	29.999999999999996
	84	24	0.00501	0.03571	0.06552	402.4	0.0	0.0	1.0	0.0	1	-29.999999999999996	29.999999999999996
	85	84	0.00591	0.04206	0.07716	402.4	0.0	0.0	1.0	0.0	1	-29.999999999999996	29.999999999999996
	87	147	0.00465	0.0331	0.06073	402.4	0.0	0.0	1.0	0.0	1	-29.999999999999996	29.999999999999996
	88	147	0.00382	0.02721	0.04992	402.4	0.0	0.0	1.0	0.0	1	-29.999999999999996	29.999999999999996
	88	89	0.00843	0.06004	0.11016	402.4	0.0	0.0	1.0	0.0	1	-29.999999999999996	29.999999999999996
	89	26	0.00661	0.04705	0.08632	402.4	0.0	0.0	1.0	0.0	1	-29.999999999999996	29.999999999999996
	90	91	0.00611	0.04352	0.07984	402.4	0.0	0.0	1.0	0.0	1	-29.999999999999996	29.999999999999996
	90	25	0.00514	0.03663	0.06721	402.4	0.0	0.0	1.0	0.0	1	-29.999999999999996	29.999999999999996
	91	25	0.00611	0.04351	0.07983	402.4	0.0	0.0	1.0	0.0	1	-29.999999999999996	29.999999999999996
	92	100	6.0e-5	0.00126	0.13886	3585.3	0.0	0.0	1.0	0.0	1	-29.999999999999996	29.999999999999996
	93	97	0.00048	0.01006	1.1105	3585.3	0.0	0.0	1.0	0.0	1	-29.999999999999996	29.999999999999996
	96	102	0.0001	0.00203	0.22352	3585.3	0.0	0.0	1.0	0.0	1	-29.999999999999996	29.999999999999996
	96	101	0.0002	0.00428	0.47225	3585.3	0.0	0.0	1.0	0.0	1	-29.999999999999996	29.999999999999996
	98	108	0.00011	0.00228	0.25174	3585.3	0.0	0.0	1.0	0.0	1	-29.999999999999996	29.999999999999996
	99	137	0.00044	0.00934	1.03107	3585.3	0.0	0.0	1.0	0.0	1	-29.999999999999996	29.999999999999996
	103	97	0.00018	0.0039	0.43064	3585.3	0.0	0.0	1.0	0.0	1	-29.999999999999996	29.999999999999996
	104	137	0.00036	0.00751	0.82922	3585.3	0.0	0.0	1.0	0.0	1	-29.999999999999996	29.999999999999996
	104	99	0.0001	0.00212	0.23376	3585.3	0.0	0.0	1.0	0.0	1	-29.999999999999996	29.999999999999996
	105	102	0.00044	0.00931	1.02721	3585.3	0.0	0.0	1.0	0.0	1	-29.999999999999996	29.999999999999996
	106	102	0.00033	0.00698	0.77057	3585.3	0.0	0.0	1.0	0.0	1	-29.999999999999996	29.999999999999996
	106	94	0.00048	0.01018	1.12392	3585.3	0.0	0.0	1.0	0.0	1	-29.999999999999996	29.999999999999996
	107	139	0.00028	0.00588	0.64896	3585.3	0.0	0.0	1.0	0.0	1	-29.999999999999996	29.999999999999996
	108	101	0.00038	0.00809	0.89305	3585.3	0.0	0.0	1.0	0.0	1	-29.999999999999996	29.999999999999996
	109	107	0.0004	0.00849	0.93683	3585.3	0.0	0.0	1.0	0.0	1	-29.999999999999996	29.999999999999996
	109	93	0.0003	0.00625	0.6903	3585.3	0.0	0.0	1.0	0.0	1	-29.999999999999996	29.999999999999996
	109	92	0.0001	0.00215	0.23729	3585.3	0.0	0.0	1.0	0.0	1	-29.999999999999996	29.999999999999996
	137	95	0.00031	0.00648	0.71484	3585.3	0.0	0.0	1.0	0.0	1	-29.999999999999996	29.999999999999996
	139	100	0.00021	0.00435	0.48054	3585.3	0.0	0.0	1.0	0.0	1	-29.999999999999996	29.999999999999996
	140	39	0.00378	0.02696	0.04946	402.4	0.0	0.0	1.0	0.0	1	-29.999999999999996	29.999999999999996
	140	27	0.00263	0.0187	0.0343	402.4	0.0	0.0	1.0	0.0	1	-29.999999999999996	29.999999999999996
	141	17	0.00247	0.01758	0.03226	402.4	0.0	0.0	1.0	0.0	1	-29.999999999999996	29.999999999999996
	141	17	0.00247	0.01758	0.03226	402.4	0.0	0.0	1.0	0.0	1	-29.999999999999996	29.999999999999996
	141	15	0.00266	0.01897	0.03481	402.4	0.0	0.0	1.0	0.0	1	-29.999999999999996	29.999999999999996
	141	3	0.00281	0.02	0.03669	402.4	0.0	0.0	1.0	0.0	1	-29.999999999999996	29.999999999999996
	142	101	0.00018	0.00377	0.41573	3585.3	0.0	0.0	1.0	0.0	1	-29.999999999999996	29.999999999999996
	144	108	0.00045	0.00947	1.04538	3585.3	0.0	0.0	1.0	0.0	1	-29.999999999999996	29.999999999999996
	144	101	0.00067	0.0142	1.56758	3585.3	0.0	0.0	1.0	0.0	1	-29.999999999999996	29.999999999999996
	144	98	0.0004	0.0084	0.92687	3585.3	0.0	0.0	1.0	0.0	1	-29.999999999999996	29.999999999999996
	144	95	0.00048	0.01006	1.11046	3585.3	0.0	0.0	1.0	0.0	1	-29.999999999999996	29.999999999999996
	145	40	0.00218	0.01555	0.02852	402.4	0.0	0.0	1.0	0.0	1	-29.999999999999996	29.999999999999996
	145	32	0.00242	0.01721	0.03157	402.4	0.0	0.0	1.0	0.0	1	-29.999999999999996	29.999999999999996
	146	107	0.00035	0.00736	0.81179	3585.3	0.0	0.0	1.0	0.0	1	-29.999999999999996	29.999999999999996
	146	105	0.00061	0.01292	1.42581	3585.3	0.0	0.0	1.0	0.0	1	-29.999999999999996	29.999999999999996
	146	94	9.0e-5	0.00197	0.21765	3585.3	0.0	0.0	1.0	0.0	1	-29.999999999999996	29.999999999999996
	148	95	0.00047	0.00993	1.09577	3585.3	0.0	0.0	1.0	0.0	1	-29.999999999999996	29.999999999999996
	150	97	0.00026	0.00548	0.60445	3585.3	0.0	0.0	1.0	0.0	1	-29.999999999999996	29.999999999999996
	150	93	0.00028	0.00589	0.64955	3585.3	0.0	0.0	1.0	0.0	1	-29.999999999999996	29.999999999999996
	5	21	0.0	-0.01061	0.0	2000.0	0.0	0.0	1.0	0.0	1	-29.999999999999996	29.999999999999996
	8	102	0.0002	0.016	0.0	1000.0	0.0	0.0	1.0	0.0	1	-29.999999999999996	29.999999999999996
	11	98	0.0002	0.016	0.0	1000.0	0.0	0.0	1.0	0.0	1	-29.999999999999996	29.999999999999996
	14	108	0.0002	0.016	0.0	1000.0	0.0	0.0	1.0	0.0	1	-29.999999999999996	29.999999999999996
	22	101	0.0002	0.016	0.0	1000.0	0.0	0.0	1.0	0.0	1	-29.999999999999996	29.999999999999996
	22	101	0.0002	0.016	0.0	1000.0	0.0	0.0	1.0	0.0	1	-29.999999999999996	29.999999999999996
	23	96	0.0002	0.016	0.0	1000.0	0.0	0.0	1.0	0.0	1	-29.999999999999996	29.999999999999996
	27	106	0.0002	0.016	0.0	1000.0	0.0	0.0	1.0	0.0	1	-29.999999999999996	29.999999999999996
	33	107	0.0002	0.016	0.0	1000.0	0.0	0.0	1.0	0.0	1	-29.999999999999996	29.999999999999996
	40	94	0.0002	0.016	0.0	1000.0	0.0	0.0	1.0	0.0	1	-29.999999999999996	29.999999999999996
	43	97	0.0002	0.016	0.0	1000.0	0.0	0.0	1.0	0.0	1	-29.999999999999996	29.999999999999996
	45	103	0.0002	0.016	0.0	1000.0	0.0	0.0	1.0	0.0	1	-29.999999999999996	29.999999999999996
	49	109	0.0002	0.016	0.0	1000.0	0.0	0.0	1.0	0.0	1	-29.999999999999996	29.999999999999996
	54	93	0.0002	0.016	0.0	1000.0	0.0	0.0	1.0	0.0	1	-29.999999999999996	29.999999999999996
	63	92	0.0002	0.016	0.0	1000.0	0.0	0.0	1.0	0.0	1	-29.999999999999996	29.999999999999996
	64	100	0.0002	0.016	0.0	1000.0	0.0	0.0	1.0	0.0	1	-29.999999999999996	29.999999999999996
	71	104	0.0002	0.016	0.0	1000.0	0.0	0.0	1.0	0.0	1	-29.999999999999996	29.999999999999996
	79	99	0.0002	0.016	0.0	1000.0	0.0	0.0	1.0	0.0	1	-29.999999999999996	29.999999999999996
	79	99	0.0002	0.016	0.0	1000.0	0.0	0.0	1.0	0.0	1	-29.999999999999996	29.999999999999996
	86	95	0.0002	0.016	0.0	1000.0	0.0	0.0	1.0	0.0	1	-29.999999999999996	29.999999999999996
	90	105	0.0002	0.016	0.0	1000.0	0.0	0.0	1.0	0.0	1	-29.999999999999996	29.999999999999996
	136	137	0.0002	0.016	0.0	1000.0	0.0	0.0	1.0	0.0	1	-29.999999999999996	29.999999999999996
	136	137	0.0002	0.016	0.0	1000.0	0.0	0.0	1.0	0.0	1	-29.999999999999996	29.999999999999996
	137	127	0.00037	0.01476	0.0	677.5	0.0	0.0	1.0	0.0	1	-29.999999999999996	29.999999999999996
	137	128	0.00025	0.00985	0.0	1015.0	0.0	0.0	1.0	0.0	1	-29.999999999999996	29.999999999999996
	137	126	0.00037	0.01476	0.0	677.5	0.0	0.0	1.0	0.0	1	-29.999999999999996	29.999999999999996
	137	125	0.00037	0.01476	0.0	677.5	0.0	0.0	1.0	0.0	1	-29.999999999999996	29.999999999999996
	137	124	0.00037	0.01476	0.0	677.5	0.0	0.0	1.0	0.0	1	-29.999999999999996	29.999999999999996
	138	139	0.0002	0.016	0.0	1000.0	0.0	0.0	1.0	0.0	1	-29.999999999999996	29.999999999999996
	138	139	0.0002	0.016	0.0	1000.0	0.0	0.0	1.0	0.0	1	-29.999999999999996	29.999999999999996
	139	122	0.00019	0.00755	0.0	1325.0	0.0	0.0	1.0	0.0	1	-29.999999999999996	29.999999999999996
	139	121	0.00056	0.02254	0.0	443.79999999999995	0.0	0.0	1.0	0.0	1	-29.999999999999996	29.999999999999996
	139	120	0.00056	0.02254	0.0	443.79999999999995	0.0	0.0	1.0	0.0	1	-29.999999999999996	29.999999999999996
	139	123	0.00019	0.00755	0.0	1325.0	0.0	0.0	1.0	0.0	1	-29.999999999999996	29.999999999999996
	140	135	0.00547	0.21882	0.0	45.7	0.0	0.0	1.0	0.0	1	-29.999999999999996	29.999999999999996
	141	142	0.0002	0.016	0.0	1000.0	0.0	0.0	1.0	0.0	1	-29.999999999999996	29.999999999999996
	141	142	0.0002	0.016	0.0	1000.0	0.0	0.0	1.0	0.0	1	-29.999999999999996	29.999999999999996
	142	112	0.00019	0.00776	0.0	1289.2	0.0	0.0	1.0	0.0	1	-29.999999999999996	29.999999999999996
	142	111	0.00055	0.02202	0.0	454.2	0.0	0.0	1.0	0.0	1	-29.999999999999996	29.999999999999996
	142	110	0.00037	0.01464	0.0	683.1	0.0	0.0	1.0	0.0	1	-29.999999999999996	29.999999999999996
	143	144	0.0002	0.016	0.0	1000.0	0.0	0.0	1.0	0.0	1	-29.999999999999996	29.999999999999996
	143	144	0.0002	0.016	0.0	1000.0	0.0	0.0	1.0	0.0	1	-29.999999999999996	29.999999999999996
	144	119	0.00012	0.0049	0.0	2042.6	0.0	0.0	1.0	0.0	1	-29.999999999999996	29.999999999999996
...
];

%%-----  OPF Data  -----%%
%% generator cost data
%    1    startup    shutdown    n    x1    y1    ...    xn    yn
%    2    startup    shutdown    n    c(n-1)    ...    c0
mpc.gencost = [
	2	0	0	3	0.11	5.0	0.0
	2	0	0	3	0.11	5.0	0.0
	2	0	0	3	0.11	5.0	0.0
	2	0	0	3	0.11	5.0	0.0
	2	0	0	3	0.11	5.0	0.0
	2	0	0	3	0.11	5.0	0.0
	2	0	0	3	0.11	5.0	0.0
	2	0	0	3	0.11	5.0	0.0
	2	0	0	3	0.11	5.0	0.0
	2	0	0	3	0.11	5.0	0.0
	2	0	0	3	0.11	5.0	0.0
	2	0	0	3	0.11	5.0	0.0
	2	0	0	3	0.11	5.0	0.0
	2	0	0	3	0.11	5.0	0.0
	2	0	0	3	0.11	5.0	0.0
	2	0	0	3	0.11	5.0	0.0
	2	0	0	3	0.11	5.0	0.0
	2	0	0	3	0.11	5.0	0.0
	2	0	0	3	0.11	5.0	0.0
	2	0	0	3	0.11	5.0	0.0
	2	0	0	3	0.11	5.0	0.0
	2	0	0	3	0.11	5.0	0.0
	2	0	0	3	0.11	5.0	0.0
	2	0	0	3	0.11	5.0	0.0
	2	0	0	3	0.11	5.0	0.0
	2	0	0	3	0.11	5.0	0.0
	2	0	0	3	0.11	5.0	0.0
];

%column_names% parent_index g_gnd
mpc.gmd_bus = [
	1	2.1258503401360547	
	2	2.1258503401360547	
	3	2.1258503401360547	
	4	2.1258503401360547	
	5	2.1258503401360547	
	6	2.1258503401360547	
	7	5.659309564233164	
	8	2.1258503401360547	
	9	2.1258503401360547	
	10	5.659309564233164	
	11	2.1258503401360547	
	12	2.1258503401360547	
	13	5.659309564233164	
	14	2.1258503401360547	
	15	2.1258503401360547	
	16	2.1258503401360547	
	17	2.1258503401360547	
	18	2.1258503401360547	
	19	2.1258503401360547	
	20	2.1258503401360547	
	21	5.659309564233164	
	22	5.659309564233164	
	23	2.1258503401360547	
	24	2.1258503401360547	
	25	2.1258503401360547	
	26	5.659309564233164	
	27	2.1258503401360547	
	28	2.1258503401360547	
	29	2.1258503401360547	
	30	2.1258503401360547	
	31	2.1258503401360547	
	32	5.659309564233164	
	33	2.1258503401360547	
	34	2.1258503401360547	
	35	2.1258503401360547	
	36	2.1258503401360547	
	37	2.1258503401360547	
	38	2.1258503401360547	
	39	5.659309564233164	
	40	2.1258503401360547	
	41	2.1258503401360547	
	42	5.659309564233164	
	43	2.1258503401360547	
	44	5.659309564233164	
	45	2.1258503401360547	
	46	2.1258503401360547	
	47	2.1258503401360547	
	48	5.659309564233164	
	49	2.1258503401360547	
	50	2.1258503401360547	
	51	2.1258503401360547	
	52	2.1258503401360547	
	53	5.659309564233164	
	54	2.1258503401360547	
	55	2.1258503401360547	
	56	2.1258503401360547	
	57	2.1258503401360547	
	58	2.1258503401360547	
	59	2.1258503401360547	
	60	2.1258503401360547	
	61	2.1258503401360547	
	62	5.659309564233164	
	63	5.659309564233164	
	64	2.1258503401360547	
	65	2.1258503401360547	
	66	2.1258503401360547	
	67	2.1258503401360547	
	68	2.1258503401360547	
	69	2.1258503401360547	
	70	5.659309564233164	
	71	2.1258503401360547	
	72	2.1258503401360547	
	73	2.1258503401360547	
	74	2.1258503401360547	
	75	2.1258503401360547	
	76	2.1258503401360547	
	77	2.1258503401360547	
	78	5.659309564233164	
	79	2.1258503401360547	
	80	2.1258503401360547	
	81	2.1258503401360547	
	82	2.1258503401360547	
	83	2.1258503401360547	
	84	2.1258503401360547	
	85	5.659309564233164	
	86	2.1258503401360547	
	87	2.1258503401360547	
	88	2.1258503401360547	
	89	5.659309564233164	
	90	2.1258503401360547	
	91	8.00640512409928	
	92	8.00640512409928	
	93	9.242144177449168	
	94	8.64304235090752	
	95	9.242144177449168	
	96	6.5359477124183005	
	97	9.242144177449168	
	98	2.6034886748242645	
	1	0.0	
	2	0.0	
	3	0.0	
	4	0.0	
	5	0.0	
	6	0.0	
	7	0.0	
	8	0.0	
	9	0.0	
	10	0.0	
	11	0.0	
	12	0.0	
	13	0.0	
	14	0.0	
	15	0.0	
	16	0.0	
	17	0.0	
	18	0.0	
	19	0.0	
	20	0.0	
	21	0.0	
	22	0.0	
	23	0.0	
	24	0.0	
	25	0.0	
	26	0.0	
	27	0.0	
	28	0.0	
	29	0.0	
	30	0.0	
	31	0.0	
	32	0.0	
	33	0.0	
	34	0.0	
	35	0.0	
	36	0.0	
	37	0.0	
	38	0.0	
	39	0.0	
	40	0.0	
	41	0.0	
	42	0.0	
	43	0.0	
	44	0.0	
	45	0.0	
	46	0.0	
	47	0.0	
	48	0.0	
	49	0.0	
	50	0.0	
	51	0.0	
	52	0.0	
	53	0.0	
	54	0.0	
	55	0.0	
	56	0.0	
	57	0.0	
	58	0.0	
	59	0.0	
	60	0.0	
	61	0.0	
	62	0.0	
	63	0.0	
	64	0.0	
	65	0.0	
	66	0.0	
	67	0.0	
	68	0.0	
	69	0.0	
	70	0.0	
	71	0.0	
	72	0.0	
	73	0.0	
	74	0.0	
	75	0.0	
	76	0.0	
	77	0.0	
	78	0.0	
	79	0.0	
	80	0.0	
	81	0.0	
	82	0.0	
	83	0.0	
	84	0.0	
	85	0.0	
	86	0.0	
	87	0.0	
	88	0.0	
	89	0.0	
	90	0.0	
	91	0.0	
	92	0.0	
	93	0.0	
	94	0.0	
	95	0.0	
	96	0.0	
	97	0.0	
	98	0.0	
	99	0.0	
	100	0.0	
	101	0.0	
	102	0.0	
...
];

%column_names%  name
mpc.gmd_bus_strings = {
	'dc_GOODLETTSVILLE_37072'	
	'dc_LEBANON_37087'	
	'dc_ANTIOCH_37013'	
	'dc_BRENTWOOD_37027'	
	'dc_NASHVILLE_37209'	
	'dc_MCMINNVILLE_37110'	
	'dc_MURFREESBORO_37130'	
	'dc_SHELBYVILLE_37160'	
	'dc_LAFAYETTE_37083'	
	'dc_CLARKSVILLE_37042'	
	'dc_DICKSON_37055'	
	'dc_NASHVILLE_37221'	
	'dc_CLARKSVILLE_37040'	
	'dc_WHITE HOUSE_37188'	
	'dc_FRANKLIN_37064'	
	'dc_HENDERSONVILLE_37075'	
	'dc_HERMITAGE_37076'	
	'dc_SMYRNA_37167'	
	'dc_LEXINGTON_38351'	
	'dc_NASHVILLE_37207'	
	'dc_NASHVILLE_37215'	
	'dc_MURFREESBORO_37129'	
	'dc_CAMDEN_38320'	
	'dc_GAINESBORO_38562'	
	'dc_COLUMBIA_38401'	
	'dc_TULLAHOMA_37388'	
	'dc_NASHVILLE_37212'	
	'dc_NASHVILLE_37206'	
	'dc_NASHVILLE_37211'	
	'dc_CHATTANOOGA_37405'	
	'dc_CHATTANOOGA_37421'	
	'dc_ATHENS_37303'	
	'dc_CLEVELAND_37311'	
	'dc_SODDY DAISY_37379'	
	'dc_COPPERHILL_37317'	
	'dc_DAYTON_37321'	
	'dc_DUNLAP_37327'	
	'dc_FAYETTEVILLE_37334'	
	'dc_HIXSON_37343'	
	'dc_CHATTANOOGA_37404'	
	'dc_JOHNSON CITY_37601'	
	'dc_JONESBOROUGH_37659'	
	'dc_GREENEVILLE_37745'	
	'dc_ELIZABETHTON_37643'	
	'dc_CHURCH HILL_37642'	
	'dc_KINGSPORT_37660'	
	'dc_MOUNTAIN CITY_37683'	
	'dc_MARYVILLE_37804'	
	'dc_CLINTON_37716'	
	'dc_MORRISTOWN_37814'	
	'dc_KNOXVILLE_37914'	
	'dc_LOUDON_37774'	
	'dc_JEFFERSON CITY_37760'	
	'dc_LA FOLLETTE_37766'	
	'dc_KNOXVILLE_37918'	
	'dc_CROSSVILLE_38555'	
	'dc_TAZEWELL_37879'	
	'dc_HARRIMAN_37748'	
	'dc_SEVIERVILLE_37876'	
	'dc_MARYVILLE_37803'	
	'dc_KNOXVILLE_37922'	
	'dc_KNOXVILLE_37921'	
	'dc_KNOXVILLE_37919'	
	'dc_HUMBOLDT_38343'	
	'dc_ARLINGTON_38002'	
	'dc_BRIGHTON_38011'	
	'dc_UNION CITY_38261'	
	'dc_WHITEVILLE_38075'	
	'dc_BROWNSVILLE_38012'	
	'dc_CORDOVA_38016'	
	'dc_COLLIERVILLE_38017'	
	'dc_DYERSBURG_38024'	
	'dc_MEMPHIS_38134'	
	'dc_MEMPHIS_38127'	
	'dc_MEMPHIS_38103'	
	'dc_MEMPHIS_38109'	
	'dc_MEMPHIS_38128'	
	'dc_MEMPHIS_38111'	
	'dc_MEMPHIS_38115'	
	'dc_MEMPHIS_38118'	
	'dc_GERMANTOWN_38138'	
	'dc_HUNTINGDON_38344'	
	'dc_PARIS_38242'	
	'dc_MARTIN_38237'	
	'dc_JACKSON_38305'	
	'dc_ADAMSVILLE_38310'	
	'dc_SAVANNAH_38372'	
	'dc_LAWRENCEBURG_38464'	
	'dc_COOKEVILLE_38501'	
	'dc_LIVINGSTON_38570'	
	'dc_Gallatin (TN)'	
	'dc_John Sevier'	
	'dc_Johnsonville'	
	'dc_Kingston'	
	'dc_Lagoon Creek'	
	'dc_Pickwick Landing Dam'	
	'dc_Sequoyah'	
	'dc_Tims Ford'	
	'dc_Johnsonville_g4'	
	'dc_GOODLETTSVILLE_37072_230.0'	
	'dc_LEBANON_37087_230.0'	
	'dc_ANTIOCH_37013_230.0'	
	'dc_BRENTWOOD_37027_230.0'	
	'dc_NASHVILLE_37209_230.0'	
	'dc_MCMINNVILLE_37110_230.0'	
	'dc_MURFREESBORO_37130_230.0'	
	'dc_SHELBYVILLE_37160_230.0'	
	'dc_LAFAYETTE_37083_230.0'	
	'dc_CLARKSVILLE_37042_230.0'	
	'dc_DICKSON_37055_230.0'	
	'dc_NASHVILLE_37221_230.0'	
	'dc_CLARKSVILLE_37040_230.0'	
	'dc_WHITE HOUSE_37188_230.0'	
	'dc_FRANKLIN_37064_230.0'	
	'dc_HENDERSONVILLE_37075_230.0'	
	'dc_HERMITAGE_37076_230.0'	
	'dc_SMYRNA_37167_230.0'	
	'dc_LEXINGTON_38351_230.0'	
	'dc_NASHVILLE_37207_230.0'	
	'dc_NASHVILLE_37215_230.0'	
	'dc_MURFREESBORO_37129_230.0'	
	'dc_CAMDEN_38320_230.0'	
	'dc_GAINESBORO_38562_230.0'	
	'dc_COLUMBIA_38401_230.0'	
	'dc_TULLAHOMA_37388_230.0'	
	'dc_NASHVILLE_37212_230.0'	
	'dc_NASHVILLE_37206_230.0'	
	'dc_NASHVILLE_37211_230.0'	
	'dc_CHATTANOOGA_37405_230.0'	
	'dc_CHATTANOOGA_37421_230.0'	
	'dc_ATHENS_37303_230.0'	
	'dc_CLEVELAND_37311_230.0'	
	'dc_SODDY DAISY_37379_230.0'	
	'dc_COPPERHILL_37317_230.0'	
	'dc_DAYTON_37321_230.0'	
	'dc_DUNLAP_37327_230.0'	
	'dc_FAYETTEVILLE_37334_230.0'	
	'dc_HIXSON_37343_230.0'	
	'dc_CHATTANOOGA_37404_230.0'	
	'dc_JOHNSON CITY_37601_230.0'	
	'dc_JONESBOROUGH_37659_230.0'	
	'dc_GREENEVILLE_37745_230.0'	
	'dc_ELIZABETHTON_37643_230.0'	
	'dc_CHURCH HILL_37642_230.0'	
	'dc_KINGSPORT_37660_230.0'	
	'dc_MOUNTAIN CITY_37683_230.0'	
	'dc_MARYVILLE_37804_230.0'	
	'dc_CLINTON_37716_230.0'	
	'dc_MORRISTOWN_37814_230.0'	
	'dc_KNOXVILLE_37914_230.0'	
	'dc_LOUDON_37774_230.0'	
	'dc_JEFFERSON CITY_37760_230.0'	
	'dc_LA FOLLETTE_37766_230.0'	
	'dc_KNOXVILLE_37918_230.0'	
	'dc_CROSSVILLE_38555_230.0'	
	'dc_TAZEWELL_37879_230.0'	
	'dc_HARRIMAN_37748_230.0'	
	'dc_SEVIERVILLE_37876_230.0'	
	'dc_MARYVILLE_37803_230.0'	
	'dc_KNOXVILLE_37922_230.0'	
	'dc_KNOXVILLE_37921_230.0'	
	'dc_KNOXVILLE_37919_230.0'	
	'dc_HUMBOLDT_38343_230.0'	
	'dc_ARLINGTON_38002_230.0'	
	'dc_BRIGHTON_38011_230.0'	
	'dc_UNION CITY_38261_230.0'	
	'dc_WHITEVILLE_38075_230.0'	
	'dc_BROWNSVILLE_38012_230.0'	
	'dc_CORDOVA_38016_230.0'	
	'dc_COLLIERVILLE_38017_230.0'	
	'dc_DYERSBURG_38024_230.0'	
	'dc_MEMPHIS_38134_230.0'	
	'dc_MEMPHIS_38127_230.0'	
	'dc_MEMPHIS_38103_230.0'	
	'dc_MEMPHIS_38109_230.0'	
	'dc_MEMPHIS_38128_230.0'	
	'dc_MEMPHIS_38111_230.0'	
	'dc_MEMPHIS_38115_230.0'	
	'dc_MEMPHIS_38118_230.0'	
	'dc_GERMANTOWN_38138_230.0'	
	'dc_HUNTINGDON_38344_230.0'	
	'dc_PARIS_38242_230.0'	
	'dc_MARTIN_38237_230.0'	
	'dc_JACKSON_38305_230.0'	
	'dc_ADAMSVILLE_38310_230.0'	
	'dc_SAVANNAH_38372_230.0'	
	'dc_LAWRENCEBURG_38464_230.0'	
	'dc_COOKEVILLE_38501_230.0'	
	'dc_LIVINGSTON_38570_230.0'	
	'dc_KNOXVILLE_37921_500.0'	
	'dc_JEFFERSON CITY_37760_500.0'	
	'dc_HIXSON_37343_500.0'	
	'dc_JACKSON_38305_500.0'	
	'dc_MURFREESBORO_37129_500.0'	
	'dc_JONESBOROUGH_37659_500.0'	
	'dc_CLARKSVILLE_37042_500.0'	
	'dc_MEMPHIS_38111_500.0'	
	'dc_KNOXVILLE_37919_500.0'	
	'dc_NASHVILLE_37215_500.0'	
	'dc_MURFREESBORO_37130_500.0'	
	'dc_ELIZABETHTON_37643_500.0'	
	'dc_CORDOVA_38016_500.0'	
	'dc_COOKEVILLE_38501_500.0'	
	'dc_TULLAHOMA_37388_500.0'	
	'dc_ATHENS_37303_500.0'	
	'dc_CLARKSVILLE_37040_500.0'	
	'dc_MARYVILLE_37804_500.0'	
	'dc_Gallatin (TN)_g1'	
	'dc_Gallatin (TN)_g2'	
	'dc_Gallatin (TN)_g3'	
	'dc_John Sevier_g1'	
	'dc_John Sevier_g2'	
	'dc_John Sevier_g3'	
	'dc_Johnsonville_g1'	
	'dc_Johnsonville_g2'	
	'dc_Johnsonville_g3'	
	'dc_Johnsonville_g5'	
	'dc_Kingston_g1'	
	'dc_Kingston_g2'	
	'dc_Kingston_g3'	
	'dc_Kingston_g4'	
	'dc_Lagoon Creek_g1'	
	'dc_Lagoon Creek_g2'	
	'dc_Lagoon Creek_g3'	
	'dc_Lagoon Creek_g4'	
	'dc_Lagoon Creek_g5'	
	'dc_Pickwick Landing Dam_g1'	
	'dc_Sequoyah_g1'	
	'dc_Sequoyah_g2'	
	'dc_Sequoyah_g3'	
	'dc_Sequoyah_g4'	
	'dc_Sequoyah_g5'	
	'dc_Tims Ford_g1'	
	'dc_Lagoon Creek_230.0'	
	'dc_Lagoon Creek_500.0'	
	'dc_Kingston_230.0'	
	'dc_Kingston_500.0'	
	'dc_Tims Ford_230.0'	
	'dc_Gallatin (TN)_230.0'	
	'dc_Gallatin (TN)_500.0'	
	'dc_Johnsonville_230.0'	
	'dc_Johnsonville_500.0'	
	'dc_Sequoyah_230.0'	
	'dc_Sequoyah_500.0'	
	'dc_Pickwick Landing Dam_230.0'	
	'dc_Pickwick Landing Dam_500.0'	
	'dc_John Sevier_230.0'	
	'dc_John Sevier_500.0'	
};

%column_names%  f_bus t_bus parent_index br_status br_r br_v len_km
mpc.gmd_branch = [
	100	119	1	1	0.56074	9.687064370981355	23.961278974303113	
	100	112	2	1	0.96278	-41.08308157586014	41.30923931343121	
	102	128	3	1	0.19573000000000004	-8.216741328213406	8.38362203226035	
	102	117	4	1	0.25921	8.121906440964997	11.101004142134121	
	102	116	5	1	0.20807333333333333	1.7471581385142314	8.873105835977155	
	103	114	6	1	0.4478866666666667	-16.28269876464363	19.223936296502483	
	103	128	7	1	0.2874233333333333	3.9844950436048467	12.281829547385584	
	104	112	8	1	0.9186966666666666	-28.525756833200518	39.31435155513658	
	104	111	9	1	0.49726000000000004	-3.8793148650232654	21.218585201080955	
	104	126	10	1	0.44965000000000005	16.766476710849048	19.281021640249094	
	105	136	11	1	1.0386033333333333	37.884226554584984	44.487584784904115	
	105	106	12	1	1.1638	-48.36798120094631	49.903200378443124	
	106	121	13	1	0.3949866666666666	-16.81104224468134	16.956878828000857	
	107	137	14	1	0.96807	5.365147555426271	41.32261408565746	
	107	121	15	1	1.0015733333333334	15.651812193095168	42.79728035997275	
	107	124	16	1	0.82524	-30.790125638911984	35.37612860046507	
	108	239	17	1	0.7705766666666666	-23.541907678274864	33.01583965434563	
	108	123	18	1	1.04213	44.296115783822835	44.73143337162554	
	109	112	19	1	0.44436000000000003	18.276630493710726	19.090635212671202	
	110	111	20	1	0.9098799999999999	37.993368907670344	39.006508113653055	
	110	241	21	1	1.14793	-48.69097022176591	49.21414400144359	
	111	114	22	1	0.4761	6.865205152679065	20.37618717434976	
	113	115	23	1	0.44083333333333335	-7.850209198443768	18.846144525648487	
	114	124	24	1	0.5536866666666667	-2.984224508687421	23.66709754011358	
	115	119	25	1	0.32621666666666665	-11.19510422507646	13.956261095344527	
	116	120	26	1	0.12519666666666668	-5.337677013571093	5.381830046842052	
	117	121	27	1	0.35619333333333336	6.651579965508488	15.202461267653442	
	117	101	28	1	0.9610166666666666	31.416951989156328	41.13509584018222	
	118	241	29	1	1.2096466666666668	24.75982759138402	51.735285875462736	
	119	127	30	1	0.1974933333333333	2.3472575929711734	8.454900038053937	
	120	128	31	1	0.20983666666666667	-4.619442068280311	8.999062088942622	
	120	127	32	1	0.10403666666666667	-3.095707085332857	4.441314990523534	
	120	128	33	1	0.20983666666666667	-4.619442068280311	8.999062088942622	
	122	241	34	1	0.11990666666666668	5.029077905416772	5.118812186275495	
	126	127	35	1	0.19220333333333336	7.927811978910655	8.232575773387158	
	129	139	36	1	0.6841733333333333	23.643644656944797	29.31429047697603	
	129	136	37	1	0.98923	17.553133987383184	42.28139493972162	
	129	138	38	1	0.6312733333333332	26.67057282851207	27.080309511062218	
	130	134	39	1	1.5094133333333335	64.78241233423924	64.78262607715382	
	130	138	40	1	0.3138733333333333	-11.114885867426338	13.408472951024315	
	131	135	41	1	0.9504366666666666	-39.14991942040476	40.76824117431351	
	132	134	42	1	0.9292766666666666	39.44768168728425	39.86569408392447	
	133	135	43	1	0.8111333333333333	10.752853849450883	34.65143359961478	
	133	243	44	1	0.17457	-5.4515043990841	7.475170350701417	
	133	243	45	1	0.17457	-5.4515043990841	7.475170350701417	
	133	132	46	1	0.5889533333333333	18.33269561152578	25.219416044394393	
	135	136	47	1	0.8887200000000001	-37.740662104591436	38.14298700579007	
	138	139	48	1	0.3050566666666667	-3.0462845868769484	12.998390417838815	
	140	141	49	1	0.23452333333333333	-9.860237924807702	10.08545243189294	
	142	140	50	1	1.03155	41.42235957251018	44.1930880975753	
	142	247	51	1	0.6330366666666666	-14.016985874959751	27.03208443368916	
	143	146	52	1	0.6347999999999999	27.11866829841513	27.2427019478477	
	143	140	53	1	0.5836633333333333	-20.334497623025023	25.01550212031069	
	144	247	54	1	0.38969666666666675	-11.441914384096457	16.67408852775685	
	144	145	55	1	0.62422	26.58198567127775	26.741719367900437	
	145	146	56	1	1.5129400000000002	64.65969828902571	64.90112813824943	
	145	141	57	1	0.51313	7.41686950718992	21.932162147989963	
	147	150	58	1	0.5413433333333333	12.380148475509872	23.18792302545909	
	147	161	59	1	0.41967333333333334	-9.476947943636437	17.95114400166551	
	148	154	60	1	0.46023	19.697533401423275	19.76679906276997	
	148	153	61	1	0.8657966666666668	-17.844166479247267	36.990417217716576	
	148	162	62	1	0.5007866666666667	4.145735264489546	21.399168055950753	
	149	247	63	1	0.67183	25.414348341470163	28.826534328101772	
	149	156	64	1	0.9751233333333333	-33.51975454604181	41.750191169819615	
	149	152	65	1	0.5677933333333334	-7.136465186242891	24.285618353036504	
	150	158	66	1	0.6806466666666666	16.50790958369216	29.074640887069922	
	150	154	67	1	0.4249633333333333	-15.35929130333395	18.182576072551214	
	151	236	68	1	0.3403233333333333	-14.228886481654333	14.613066592039903	
	151	236	69	1	0.3403233333333333	-14.228886481654333	14.613066592039903	
	151	160	70	1	0.3614833333333334	15.415860781700399	15.49171976428581	
	152	158	71	1	0.7494166666666667	-18.753100130796977	32.05548451289227	
	153	236	72	1	1.3718733333333333	-14.171202347319118	58.596865046392246	
	154	161	73	1	0.3632466666666667	-6.460615991528922	15.502417847433946	
	154	156	74	1	1.10032	23.98337320791627	47.01337526465175	
	155	188	75	1	1.0438933333333333	-41.675491426901814	44.74574074087358	
	155	157	76	1	0.96807	41.08790444445139	41.520895174397694	
	157	236	77	1	0.2645	10.902344200644254	11.373593847953712	
	159	131	78	1	1.0703433333333334	-40.5330322660465	45.862581119344526	
	159	160	79	1	0.5695566666666666	-8.952886414411283	24.361842378105724	
	160	162	80	1	0.24863000000000002	6.662290125571749	10.660181323639646	
	161	162	81	1	0.24510333333333334	-9.119769980333512	10.522149454542088	
	163	184	82	1	0.83053	16.884280543523833	35.52521455550745	
	163	181	83	1	0.8851933333333334	37.85199205903811	38.003969727923035	
	163	171	84	1	0.8217133333333333	-34.097708862873276	35.228643886910625	
	164	169	85	1	0.3738266666666667	-7.819120067868151	15.968970379953214	
	164	165	86	1	0.6877	-3.6323392703108066	29.371869302247685	
	165	234	87	1	0.7176766666666666	29.040389423704163	30.73824626358379	
	165	234	88	1	0.7176766666666666	29.040389423704163	30.73824626358379	
	165	173	89	1	0.93104	-24.684597766188656	39.800589890663936	
	166	183	90	1	0.9857033333333334	42.168473537821924	42.29024285483357	
	166	171	91	1	0.9751233333333333	-11.250233468004117	41.671849927959386	
	167	185	92	1	0.9539633333333333	40.93206537129824	40.951260297009746	
	167	168	93	1	1.0244966666666666	-24.38260479575316	43.82305354620882	
	168	234	94	1	0.29624	-10.843881642908462	12.71270248676477	
	168	170	95	1	1.3754	-26.45862225726985	58.81073050149605	
	169	172	96	1	0.19044000000000003	-7.970095006321682	8.172681673204359	
	169	172	97	1	0.19044000000000003	-7.970095006321682	8.172681673204359	
	169	170	98	1	0.4373066666666667	17.76959126166893	18.759440873256402	
	169	180	99	1	0.30682000000000004	-1.6135523772342337	13.091310822625562	
	171	234	100	1	0.9698333333333333	-3.05375698778578	41.42198924519529	
	172	176	101	1	0.16927999999999999	-7.203955313745952	7.241073350943745	
	173	176	102	1	0.2521566666666667	5.397693473275276	10.760138922751032	
	174	177	103	1	0.18162333333333336	6.425812724464966	7.771636853815518	
	174	176	104	1	0.21336333333333332	7.433543075375487	9.170139231149275	
	174	175	105	1	0.3367966666666667	-11.031685127249569	14.419680701450076	
	175	179	106	1	0.35972000000000004	15.04459475324863	15.427763551764864	
	177	178	107	1	0.23981333333333335	8.016500030427736	10.24493521469505	
	177	179	108	1	0.20278333333333332	-2.4261865183773486	8.677862510754354	
	178	180	109	1	0.15341000000000002	6.5776298347144015	6.60385889582272	
	181	118	110	1	1.13206	27.97708966649824	48.42264701070892	
	182	122	111	1	0.88343	21.140761163321592	37.818906109834344	
	183	182	112	1	1.04213	44.47570666946453	44.66994912618647	
	185	245	113	1	0.81995	28.5264884205818	35.10408055072634	
	186	245	114	1	0.6735933333333334	-22.443248711244973	28.84323230944022	
	186	187	115	1	1.4864899999999999	63.34978552291833	63.77030156076109	
	187	124	116	1	1.1655633333333333	29.576785427516434	49.825597245060315	
	188	189	117	1	1.0773966666666668	33.25020178268464	46.125891145880615	
	188	123	118	1	0.9063533333333332	-12.825916442831724	38.75797627402356	
	189	123	119	1	1.0773966666666668	-45.982451604715244	46.212482889109744	
	190	198	120	1	0.049999999999999996	-9.119769980333512	10.522149454542088	
	191	195	121	1	0.39999999999999997	78.19527072655198	84.19921255307125	
	194	200	122	1	0.08333333333333333	16.81104224468134	16.956878828000857	
	194	199	123	1	0.16666666666666666	-18.36665519662808	35.710236402179106	
	196	206	124	1	0.09166666666666667	18.276630493710726	19.090635212671202	
	197	235	125	1	0.3666666666666667	49.43929285893168	78.0111979183373	
	201	195	126	1	0.15	-30.183975227833137	32.650994785099904	
	202	235	127	1	0.3	33.27936224179501	62.70458209907397	
	202	197	128	1	0.08333333333333333	-16.194169204043284	17.72272519962712	
	203	200	129	1	0.3666666666666667	-70.50832776830453	77.86260253773312	
	204	200	130	1	0.27499999999999997	-13.46809304742074	58.20953959973172	
	204	192	131	1	0.39999999999999997	82.31061921088953	85.23460188953426	
	205	237	132	1	0.2333333333333333	1.792251929563663	49.00794848196124	
	206	199	133	1	0.3166666666666667	56.28662391170557	67.65657036369723	
	207	205	134	1	0.3333333333333333	-56.866047847414706	70.95689096825977	
	207	191	135	1	0.24999999999999997	47.62911594660496	52.32718255586354	
	207	190	136	1	0.08333333333333333	-9.476947943636437	17.95114400166551	
	235	193	137	1	0.25833333333333336	54.21367984715658	54.22692138196718	
	237	198	138	1	0.17500000000000002	36.28954812702705	36.45430152846323	
	238	137	139	1	0.66654	-27.72329670537208	28.623646385301058	
	238	125	140	1	0.46375666666666665	13.130530207377497	19.810204924447618	
	239	115	141	1	0.43554333333333334	-18.670307441540007	18.671375830779613	
	239	115	142	1	0.43554333333333334	-18.670307441540007	18.671375830779613	
	239	113	143	1	0.46904666666666667	-10.801763345623005	20.085442278348815	
	239	101	144	1	0.4954966666666667	18.59123535823564	21.225785218584043	
	240	199	145	1	0.15	-24.454341191487647	31.49056935124555	
	242	206	146	1	0.375	61.71821260893955	79.17269321139811	
	242	199	147	1	0.5583333333333333	118.29774103175909	118.90991585859392	
	242	196	148	1	0.3333333333333333	43.369659547399664	70.12501651410983	
	242	193	149	1	0.39999999999999997	-73.74409199842374	84.15987128446774	
	243	138	150	1	0.38440666666666673	-12.597651598924237	16.48229358170202	
	243	130	151	1	0.42672666666666664	-1.4944828123230522	18.189769379732514	
	244	205	152	1	0.2916666666666667	55.44072317878213	61.527669409802165	
	244	203	153	1	0.5083333333333333	-37.04232307867045	107.73616005282042	
	244	192	154	1	0.075	-12.597651598924237	16.48229358170202	
	246	193	155	1	0.39166666666666666	-50.202445640501146	82.89050648637222	
	248	195	156	1	0.21666666666666665	45.50929724272254	45.851658187343766	
	248	191	157	1	0.2333333333333333	-32.57916597356089	49.16252115901401	
	106	200	159	1	0.08333333333333333	0.0	0.0	
	106	7	159	1	0.06046666666666667	0.0	0.0	
	109	196	160	1	0.08333333333333333	0.0	0.0	
	109	10	160	1	0.06046666666666667	0.0	0.0	
	112	206	161	1	0.08333333333333333	0.0	0.0	
	112	13	161	1	0.06046666666666667	0.0	0.0	
	120	199	162	1	0.08333333333333333	0.0	0.0	
	120	21	162	1	0.06046666666666667	0.0	0.0	
	120	199	163	1	0.08333333333333333	0.0	0.0	
	120	21	163	1	0.06046666666666667	0.0	0.0	
	121	194	164	1	0.08333333333333333	0.0	0.0	
	121	22	164	1	0.06046666666666667	0.0	0.0	
	125	204	165	1	0.08333333333333333	0.0	0.0	
	125	26	165	1	0.06046666666666667	0.0	0.0	
	131	205	166	1	0.08333333333333333	0.0	0.0	
	131	32	166	1	0.06046666666666667	0.0	0.0	
	138	192	167	1	0.08333333333333333	0.0	0.0	
	138	39	167	1	0.06046666666666667	0.0	0.0	
	141	195	168	1	0.08333333333333333	0.0	0.0	
	141	42	168	1	0.06046666666666667	0.0	0.0	
	143	201	169	1	0.08333333333333333	0.0	0.0	
	143	44	169	1	0.06046666666666667	0.0	0.0	
	147	207	170	1	0.08333333333333333	0.0	0.0	
	147	48	170	1	0.06046666666666667	0.0	0.0	
	152	191	171	1	0.08333333333333333	0.0	0.0	
	152	53	171	1	0.06046666666666667	0.0	0.0	
	161	190	172	1	0.08333333333333333	0.0	0.0	
	161	62	172	1	0.06046666666666667	0.0	0.0	
	162	198	173	1	0.08333333333333333	0.0	0.0	
	162	63	173	1	0.06046666666666667	0.0	0.0	
	169	202	174	1	0.08333333333333333	0.0	0.0	
	169	70	174	1	0.06046666666666667	0.0	0.0	
	177	197	175	1	0.08333333333333333	0.0	0.0	
	177	78	175	1	0.06046666666666667	0.0	0.0	
	177	197	176	1	0.08333333333333333	0.0	0.0	
	177	78	176	1	0.06046666666666667	0.0	0.0	
	184	193	177	1	0.08333333333333333	0.0	0.0	
	184	85	177	1	0.06046666666666667	0.0	0.0	
	188	203	178	1	0.08333333333333333	0.0	0.0	
	188	89	178	1	0.06046666666666667	0.0	0.0	
	234	235	179	1	0.08333333333333333	0.0	0.0	
	234	95	179	1	0.06046666666666667	0.0	0.0	
	234	235	180	1	0.08333333333333333	0.0	0.0	
...
];

%column_names%  name
mpc.gmd_branch_strings = {
	'dc_br001'	
	'dc_br002'	
	'dc_br003'	
	'dc_br004'	
	'dc_br005'	
	'dc_br006'	
	'dc_br007'	
	'dc_br008'	
	'dc_br009'	
	'dc_br010'	
	'dc_br011'	
	'dc_br012'	
	'dc_br013'	
	'dc_br014'	
	'dc_br015'	
	'dc_br016'	
	'dc_br017'	
	'dc_br018'	
	'dc_br019'	
	'dc_br020'	
	'dc_br021'	
	'dc_br022'	
	'dc_br023'	
	'dc_br024'	
	'dc_br025'	
	'dc_br026'	
	'dc_br027'	
	'dc_br028'	
	'dc_br029'	
	'dc_br030'	
	'dc_br031'	
	'dc_br032'	
	'dc_br033'	
	'dc_br034'	
	'dc_br035'	
	'dc_br036'	
	'dc_br037'	
	'dc_br038'	
	'dc_br039'	
	'dc_br040'	
	'dc_br041'	
	'dc_br042'	
	'dc_br043'	
	'dc_br044'	
	'dc_br045'	
	'dc_br046'	
	'dc_br047'	
	'dc_br048'	
	'dc_br049'	
	'dc_br050'	
	'dc_br051'	
	'dc_br052'	
	'dc_br053'	
	'dc_br054'	
	'dc_br055'	
	'dc_br056'	
	'dc_br057'	
	'dc_br058'	
	'dc_br059'	
	'dc_br060'	
	'dc_br061'	
	'dc_br062'	
	'dc_br063'	
	'dc_br064'	
	'dc_br065'	
	'dc_br066'	
	'dc_br067'	
	'dc_br068'	
	'dc_br069'	
	'dc_br070'	
	'dc_br071'	
	'dc_br072'	
	'dc_br073'	
	'dc_br074'	
	'dc_br075'	
	'dc_br076'	
	'dc_br077'	
	'dc_br078'	
	'dc_br079'	
	'dc_br080'	
	'dc_br081'	
	'dc_br082'	
	'dc_br083'	
	'dc_br084'	
	'dc_br085'	
	'dc_br086'	
	'dc_br087'	
	'dc_br088'	
	'dc_br089'	
	'dc_br090'	
	'dc_br091'	
	'dc_br092'	
	'dc_br093'	
	'dc_br094'	
	'dc_br095'	
	'dc_br096'	
	'dc_br097'	
	'dc_br098'	
	'dc_br099'	
	'dc_br100'	
	'dc_br101'	
	'dc_br102'	
	'dc_br103'	
	'dc_br104'	
	'dc_br105'	
	'dc_br106'	
	'dc_br107'	
	'dc_br108'	
	'dc_br109'	
	'dc_br110'	
	'dc_br111'	
	'dc_br112'	
	'dc_br113'	
	'dc_br114'	
	'dc_br115'	
	'dc_br116'	
	'dc_br117'	
	'dc_br118'	
	'dc_br119'	
	'dc_br120'	
	'dc_br121'	
	'dc_br122'	
	'dc_br123'	
	'dc_br124'	
	'dc_br125'	
	'dc_br126'	
	'dc_br127'	
	'dc_br128'	
	'dc_br129'	
	'dc_br130'	
	'dc_br131'	
	'dc_br132'	
	'dc_br133'	
	'dc_br134'	
	'dc_br135'	
	'dc_br136'	
	'dc_br137'	
	'dc_br138'	
	'dc_br139'	
	'dc_br140'	
	'dc_br141'	
	'dc_br142'	
	'dc_br143'	
	'dc_br144'	
	'dc_br145'	
	'dc_br146'	
	'dc_br147'	
	'dc_br148'	
	'dc_br149'	
	'dc_br150'	
	'dc_br151'	
	'dc_br152'	
	'dc_br153'	
	'dc_br154'	
	'dc_br155'	
	'dc_br156'	
	'dc_br157'	
	'dc_xf01_series'	
	'dc_xf01_common'	
	'dc_xf02_series'	
	'dc_xf02_common'	
	'dc_xf03_series'	
	'dc_xf03_common'	
	'dc_xf04_series'	
	'dc_xf04_common'	
	'dc_xf05_series'	
	'dc_xf05_common'	
	'dc_xf06_series'	
	'dc_xf06_common'	
	'dc_xf07_series'	
	'dc_xf07_common'	
	'dc_xf08_series'	
	'dc_xf08_common'	
	'dc_xf09_series'	
	'dc_xf09_common'	
	'dc_xf10_series'	
	'dc_xf10_common'	
	'dc_xf11_series'	
	'dc_xf11_common'	
	'dc_xf12_series'	
	'dc_xf12_common'	
	'dc_xf13_series'	
	'dc_xf13_common'	
	'dc_xf14_series'	
	'dc_xf14_common'	
	'dc_xf15_series'	
	'dc_xf15_common'	
	'dc_xf16_series'	
	'dc_xf16_common'	
	'dc_xf17_series'	
	'dc_xf17_common'	
	'dc_xf18_series'	
	'dc_xf18_common'	
	'dc_xf19_series'	
	'dc_xf19_common'	
	'dc_xf20_series'	
	'dc_xf20_common'	
	'dc_xf21_series'	
	'dc_xf21_common'	
	'dc_xf22_series'	
	'dc_xf22_common'	
	'dc_xf23_hi'	
	'dc_xf24_hi'	
	'dc_xf25_hi'	
	'dc_xf26_hi'	
	'dc_xf27_hi'	
	'dc_xf28_series'	
	'dc_xf28_common'	
	'dc_xf29_series'	
	'dc_xf29_common'	
	'dc_xf30_hi'	
	'dc_xf31_hi'	
	'dc_xf32_hi'	
	'dc_xf33_hi'	
	'dc_xf34_hi'	
	'dc_xf35_series'	
	'dc_xf35_common'	
	'dc_xf36_series'	
	'dc_xf36_common'	
	'dc_xf37_hi'	
	'dc_xf38_hi'	
	'dc_xf39_hi'	
	'dc_xf40_series'	
	'dc_xf40_common'	
	'dc_xf41_series'	
	'dc_xf41_common'	
	'dc_xf42_hi'	
	'dc_xf43_hi'	
	'dc_xf44_hi'	
	'dc_xf45_hi'	
	'dc_xf46_hi'	
	'dc_xf47_series'	
	'dc_xf47_common'	
	'dc_xf48_series'	
	'dc_xf48_common'	
	'dc_xf49_hi'	
	'dc_xf50_hi'	
	'dc_xf51_hi'	
	'dc_xf52_hi'	
	'dc_xf53_hi'	
	'dc_xf54_series'	
	'dc_xf54_common'	
	'dc_xf55_hi'	
	'dc_xf56_series'	
	'dc_xf56_common'	
	'dc_xf57_series'	
	'dc_xf57_common'	
	'dc_xf58_hi'	
	'dc_xf59_hi'	
	'dc_xf60_hi'	
};

%column_names%  hi_bus lo_bus gmd_br_hi gmd_br_lo gmd_k gmd_br_series gmd_br_common baseMVA
mpc.branch_gmd = [
	2	21	-1	-1	0	-1	-1	100.0	
	2	14	-1	-1	0	-1	-1	100.0	
	4	30	-1	-1	0	-1	-1	100.0	
	4	19	-1	-1	0	-1	-1	100.0	
	4	18	-1	-1	0	-1	-1	100.0	
	5	16	-1	-1	0	-1	-1	100.0	
	5	30	-1	-1	0	-1	-1	100.0	
	6	14	-1	-1	0	-1	-1	100.0	
	6	13	-1	-1	0	-1	-1	100.0	
	6	28	-1	-1	0	-1	-1	100.0	
	7	38	-1	-1	0	-1	-1	100.0	
	7	8	-1	-1	0	-1	-1	100.0	
	8	23	-1	-1	0	-1	-1	100.0	
	9	39	-1	-1	0	-1	-1	100.0	
	9	23	-1	-1	0	-1	-1	100.0	
	9	26	-1	-1	0	-1	-1	100.0	
	10	141	-1	-1	0	-1	-1	100.0	
	10	25	-1	-1	0	-1	-1	100.0	
	11	14	-1	-1	0	-1	-1	100.0	
	12	13	-1	-1	0	-1	-1	100.0	
	12	143	-1	-1	0	-1	-1	100.0	
	13	16	-1	-1	0	-1	-1	100.0	
	15	17	-1	-1	0	-1	-1	100.0	
	16	26	-1	-1	0	-1	-1	100.0	
	17	21	-1	-1	0	-1	-1	100.0	
	18	22	-1	-1	0	-1	-1	100.0	
	19	23	-1	-1	0	-1	-1	100.0	
	19	3	-1	-1	0	-1	-1	100.0	
	20	143	-1	-1	0	-1	-1	100.0	
	21	29	-1	-1	0	-1	-1	100.0	
	22	30	-1	-1	0	-1	-1	100.0	
	22	29	-1	-1	0	-1	-1	100.0	
	22	30	-1	-1	0	-1	-1	100.0	
	24	143	-1	-1	0	-1	-1	100.0	
	28	29	-1	-1	0	-1	-1	100.0	
	31	41	-1	-1	0	-1	-1	100.0	
	31	38	-1	-1	0	-1	-1	100.0	
	31	40	-1	-1	0	-1	-1	100.0	
	32	36	-1	-1	0	-1	-1	100.0	
	32	40	-1	-1	0	-1	-1	100.0	
	33	37	-1	-1	0	-1	-1	100.0	
	34	36	-1	-1	0	-1	-1	100.0	
	35	37	-1	-1	0	-1	-1	100.0	
	35	145	-1	-1	0	-1	-1	100.0	
	35	145	-1	-1	0	-1	-1	100.0	
	35	34	-1	-1	0	-1	-1	100.0	
	37	38	-1	-1	0	-1	-1	100.0	
	40	41	-1	-1	0	-1	-1	100.0	
	42	43	-1	-1	0	-1	-1	100.0	
	44	42	-1	-1	0	-1	-1	100.0	
	44	149	-1	-1	0	-1	-1	100.0	
	45	48	-1	-1	0	-1	-1	100.0	
	45	42	-1	-1	0	-1	-1	100.0	
	46	149	-1	-1	0	-1	-1	100.0	
	46	47	-1	-1	0	-1	-1	100.0	
	47	48	-1	-1	0	-1	-1	100.0	
	47	43	-1	-1	0	-1	-1	100.0	
	49	52	-1	-1	0	-1	-1	100.0	
	49	63	-1	-1	0	-1	-1	100.0	
	50	56	-1	-1	0	-1	-1	100.0	
	50	55	-1	-1	0	-1	-1	100.0	
	50	64	-1	-1	0	-1	-1	100.0	
	51	149	-1	-1	0	-1	-1	100.0	
	51	58	-1	-1	0	-1	-1	100.0	
	51	54	-1	-1	0	-1	-1	100.0	
	52	60	-1	-1	0	-1	-1	100.0	
	52	56	-1	-1	0	-1	-1	100.0	
	53	138	-1	-1	0	-1	-1	100.0	
	53	138	-1	-1	0	-1	-1	100.0	
	53	62	-1	-1	0	-1	-1	100.0	
	54	60	-1	-1	0	-1	-1	100.0	
	55	138	-1	-1	0	-1	-1	100.0	
	56	63	-1	-1	0	-1	-1	100.0	
	56	58	-1	-1	0	-1	-1	100.0	
...